19494
  -OEChem-06272307402D

 15 15  0     0  0  0  0  0  0999 V2000
    4.6730    0.1118    0.0000 O   0  0  0  0  0  0  0  0  0  0  0  0
    3.4483    1.3365    0.0000 O   0  0  0  0  0  0  0  0  0  0  0  0
    3.0000   -0.3365    0.0000 C   0  0  0  0  0  0  0  0  0  0  0  0
    3.0000   -1.3365    0.0000 C   0  0  0  0  0  0  0  0  0  0  0  0
    2.0000   -0.3365    0.0000 C   0  0  0  0  0  0  0  0  0  0  0  0
    2.0000   -1.3365    0.0000 C   0  0  0  0  0  0  0  0  0  0  0  0
    3.7071    0.3706    0.0000 C   0  0  0  0  0  0  0  0  0  0  0  0
    2.7627    0.2363    0.0000 H   0  0  0  0  0  0  0  0  0  0  0  0
    3.0000   -1.9565    0.0000 H   0  0  0  0  0  0  0  0  0  0  0  0
    3.6200   -1.3365    0.0000 H   0  0  0  0  0  0  0  0  0  0  0  0
    2.0000    0.2835    0.0000 H   0  0  0  0  0  0  0  0  0  0  0  0
    1.3800   -0.3365    0.0000 H   0  0  0  0  0  0  0  0  0  0  0  0
    1.3800   -1.3365    0.0000 H   0  0  0  0  0  0  0  0  0  0  0  0
    2.0000   -1.9565    0.0000 H   0  0  0  0  0  0  0  0  0  0  0  0
    5.1114    0.5502    0.0000 H   0  0  0  0  0  0  0  0  0  0  0  0
  1  7  1  0  0  0  0
  1 15  1  0  0  0  0
  2  7  2  0  0  0  0
  3  4  1  0  0  0  0
  3  5  1  0  0  0  0
  3  7  1  0  0  0  0
  3  8  1  0  0  0  0
  4  6  1  0  0  0  0
  4  9  1  0  0  0  0
  4 10  1  0  0  0  0
  5  6  1  0  0  0  0
  5 11  1  0  0  0  0
  5 12  1  0  0  0  0
  6 13  1  0  0  0  0
  6 14  1  0  0  0  0
M  END
> <PUBCHEM_COMPOUND_CID>
19494

> <PUBCHEM_COMPOUND_CANONICALIZED>
1

> <PUBCHEM_CACTVS_COMPLEXITY>
84.1

> <PUBCHEM_CACTVS_HBOND_ACCEPTOR>
2

> <PUBCHEM_CACTVS_HBOND_DONOR>
1

> <PUBCHEM_CACTVS_ROTATABLE_BOND>
1

> <PUBCHEM_CACTVS_SUBSKEYS>
AAADccBgMAAAAAAAAAAAAAAAAABgAAAAAAAAAAAAAAAAAAAAAAAAGgAACAAADQCAgAAACAAAAgAIAACQCAAAAAAAAAAAAAEAAAAAABIAAAAAQAAEAAAAAACIAAAIAAAAAAAAAAAAAAAAAAAAAAAAAAAAAA==

> <PUBCHEM_IUPAC_OPENEYE_NAME>
cyclobutanecarboxylic acid

> <PUBCHEM_IUPAC_CAS_NAME>
cyclobutanecarboxylic acid

> <PUBCHEM_IUPAC_NAME_MARKUP>
cyclobutanecarboxylic acid

> <PUBCHEM_IUPAC_NAME>
cyclobutanecarboxylic acid

> <PUBCHEM_IUPAC_SYSTEMATIC_NAME>
cyclobutanecarboxylic acid

> <PUBCHEM_IUPAC_TRADITIONAL_NAME>
cyclobutanecarboxylic acid

> <PUBCHEM_IUPAC_INCHI>
InChI=1S/C5H8O2/c6-5(7)4-2-1-3-4/h4H,1-3H2,(H,6,7)

> <PUBCHEM_IUPAC_INCHIKEY>
TXWOGHSRPAYOML-UHFFFAOYSA-N

> <PUBCHEM_XLOGP3_AA>
0.8

> <PUBCHEM_EXACT_MASS>
100.052429494

> <PUBCHEM_MOLECULAR_FORMULA>
C5H8O2

> <PUBCHEM_MOLECULAR_WEIGHT>
100.12

> <PUBCHEM_OPENEYE_CAN_SMILES>
C1CC(C1)C(=O)O

> <PUBCHEM_OPENEYE_ISO_SMILES>
C1CC(C1)C(=O)O

> <PUBCHEM_CACTVS_TPSA>
37.3

> <PUBCHEM_MONOISOTOPIC_WEIGHT>
100.052429494

> <PUBCHEM_TOTAL_CHARGE>
0

> <PUBCHEM_HEAVY_ATOM_COUNT>
7

> <PUBCHEM_ATOM_DEF_STEREO_COUNT>
0

> <PUBCHEM_ATOM_UDEF_STEREO_COUNT>
0

> <PUBCHEM_BOND_DEF_STEREO_COUNT>
0

> <PUBCHEM_BOND_UDEF_STEREO_COUNT>
0

> <PUBCHEM_ISOTOPIC_ATOM_COUNT>
0

> <PUBCHEM_COMPONENT_COUNT>
1

> <PUBCHEM_CACTVS_TAUTO_COUNT>
2

> <PUBCHEM_COORDINATE_TYPE>
1
5
255

$$$$
